14

C       -0.5941174025     -1.0225189608      0.1351406314                 
C       -0.9953983550     -0.2205662062      1.4334377210                 
C       -1.6798405147      0.9313311498      1.5463149118                 
O        1.9185311644      1.3473345248     -0.0811146769                 
C        1.3414730312      0.5362061285     -0.7488684916                 
C        0.8812929662     -0.9291971173     -0.2628742145                 
H       -1.1950100456     -0.6710594989     -0.7196182233                 
H       -0.8542804258     -2.0920908594      0.3235668855                 
H       -0.4860146122     -0.7139493767      2.3021130610                 
H       -1.7123410757      1.4244886671      2.4824915239                 
H       -2.2344059892      1.3580524487      0.6904283970                 
H        0.8145534403      0.8744196576     -1.6672638525                 
H        1.4736979068     -1.1423665482      0.6347746982                 
H        1.1722046635     -1.7015533282     -1.0297168511                 
