14

C       -1.6802209368     -1.0593246492      0.1166798526                 
C       -1.1815871849     -0.3034023185      1.1282739873                 
C       -0.4876900888      1.0541511214      0.9452932935                 
O        0.8859411704      0.9116029351      0.8677588868                 
C        1.4596084189      0.6028439253     -0.3940175379                 
C        2.0076009695     -0.5652963246     -0.7326907072                 
H       -1.7007796910     -0.5558657905     -0.8586081914                 
H       -2.0275200367     -2.1042811661      0.1846912180                 
H       -1.1652666144     -0.6849839980      2.1166169114                 
H       -0.6057022869      1.6636955733      1.8339603123                 
H       -0.8848868227      1.5396063620      0.0201223799                 
H        1.3702919683      1.3887636678     -1.1501055363                 
H        2.1795544700     -1.4142592027     -0.0589499130                 
H        2.3285685954     -0.7488199066     -1.7438209659                 
