14
Coordinates from ORCA-job orca_m062x_ts_def2svp
  C   -0.88629272827932     -1.01180242485456      0.00944825986910
  C   -0.92517120938093     -0.28250711148351      1.18962796541137
  C   -0.69584267737533      1.10071876051908      1.12195886643500
  O   1.04568698227428      1.19170838361512      0.58717788835587
  C   1.20224091367238      0.50866039768052     -0.47994426062488
  C   1.22111777966659     -0.87814301153439     -0.46296422575823
  H   -1.22949599056483     -0.54847413695173     -0.91836259941064
  H   -0.94631049996335     -2.10222904287419      0.02576697456178
  H   -0.73137979111453     -0.79536566255987      2.13525574934978
  H   -0.61075107145194      1.67887630810042      2.04294341665393
  H   -1.10405568598051      1.66130958373216      0.27768150662948
  H   1.08237902057635      1.02175872264433     -1.45465074085869
  H   1.50756947468940     -1.38594642222864      0.45793007043872
  H   1.36150248333175     -1.42578734380474     -1.39775387095260
